/*--------------------------------*- C++ -*----------------------------------*\
| =========                 |                                                 |
| \\      /  F ield         | OpenFOAM: The Open Source CFD Toolbox           |
|  \\    /   O peration     | Version:  4.x                                   |
|   \\  /    A nd           | Web:      www.OpenFOAM.org                      |
|    \\/     M anipulation  |                                                 |
\*---------------------------------------------------------------------------*/
FoamFile
{
    version     2.0;
    format      ascii;
    class       dictionary;
    location    "system";
    object      fvSolution;
}
// * * * * * * * * * * * * * * * * * * * * * * * * * * * * * * * * * * * * * //

solvers
{
    p
    {
	solver          GAMG;
	smoother 	GaussSeidel;
        tolerance       1e-08;
        relTol          0.01;
    }

    U
    {
        solver          smoothSolver;
        smoother        GaussSeidel;
        tolerance       1e-08;
        relTol          0.01;
    }

    s
    {
        solver          smoothSolver;
        smoother        GaussSeidel;
        tolerance       1e-08;
        relTol          0.01;
    }
    
    Phi
    {
        solver          smoothSolver;
        smoother        GaussSeidel;
        tolerance       1e-08;
        relTol          0.01;
    }

	
}

SIMPLE
{
    nNonOrthogonalCorrectors 3;
    consistent yes;
    // pRefCell  0;
    // pRefValue 0;
    residualControl
    {
	p 		1e-4;
	U		1e-6;
	pi		1e-6;
    }
}

potentialFlow
{
    nNonOrthogonalCorrectors 9;
}

relaxationFactors
{
    fields
    {
	p	0.3;
    }
    equations
    {
	U 	0.7;
    }
}

// ************************************************************************* //
