/*--------------------------------*- C++ -*----------------------------------*\
| =========                 |                                                 |
| \\      /  F ield         | OpenFOAM: The Open Source CFD Toolbox           |
|  \\    /   O peration     | Version:  4.x                                   |
|   \\  /    A nd           | Web:      www.OpenFOAM.org                      |
|    \\/     M anipulation  |                                                 |
\*---------------------------------------------------------------------------*/
FoamFile
{
    version     2.0;
    format      ascii;
    class       dictionary;
    object      snappyHexMeshDict;
}

// * * * * * * * * * * * * * * * * * * * * * * * * * * * * * * * * * * * * * //

castellatedMesh true;
snap            false;
addLayers       false;

geometry
{
    outlet.stl {type triSurfaceMesh; name OUTLET;}
    inlet.stl {type triSurfaceMesh; name INLET;}
    membr.stl {type triSurfaceMesh; name MEMBRANE;}
    walls.stl {type triSurfaceMesh; name WALL;}
    pb1.stl {type triSurfaceMesh; name PB1;}
    pb2.stl {type triSurfaceMesh; name PB2;}
}    
 
castellatedMeshControls
{

    maxLocalCells 100000;
    maxGlobalCells 500000;
    minRefinementCells 100;
    nCellsBetweenLevels 1;
    
    // Explicit feature edge refinement
    features
    (
        {file "outlet.eMesh"; level 6;}
        {file "inlet.eMesh"; level 1;}
        {file "membr.eMesh"; level 0;}
        {file "walls.eMesh"; level 0;}
        {file "pb1.eMesh"; level 0;}
        {file "pb2.eMesh"; level 0;}
    );
    
    // surface based refinement
    refinementSurfaces
    {
	INLET {level (0 0);}
	OUTLET {level (0 0);}
	MEMBRANE {level (0 0);}
	WALL {level (0 0);}
	PB1 {level (0 0);}
	PB2 {level (0 0);}
    }

    resolveFeatureAngle 30;

    // Region-wise refinement

    refinementRegions
    {
    }


    // Mesh selection
    locationInMesh (0.0 -0.05 1); // Inside point
    allowFreeStandingZoneFaces no;
}



// Settings for the snapping.
snapControls
{
   
    nSmoothPatch 15; //- Number of patch smoothing iterations before finding correspondence to surface
    //- Relative distance for points to be attracted by surface feature point
    //  or edge. True distance is this factor times local
    //  maximum edge length.
    tolerance 1.0;

    //- Number of mesh displacement relaxation iterations.
    nSolveIter 10;

    //- Maximum number of snapping relaxation iterations. Should stop
    //  before upon reaching a correct mesh.
    nRelaxIter 5;

    // Feature snapping

        //- Number of feature edge snapping iterations.
        //  Leave out altogether to disable.
        nFeatureSnapIter 10;

        //- Detect (geometric) features by sampling the surface
        implicitFeatureSnap false;

        //- Use castellatedMeshControls::features
        explicitFeatureSnap true;

        //- Detect features between multiple surfaces
        //  (only for explicitFeatureSnap, default = false)
        multiRegionFeatureSnap true;
}



// Settings for the layer addition.
addLayersControls
{
    // Are the thickness parameters below relative to the undistorted
    // size of the refined cell outside layer (true) or absolute sizes (false).
    relativeSizes true;

    // Per final patch (so not geometry!) the layer information
    layers
    {
        WALL
        {
            nSurfaceLayers 10;
        }
	
	MEMBRANE
        {
            nSurfaceLayers 10;
        }

    }

    // Expansion factor for layer mesh
    expansionRatio 1.5;


    // Wanted thickness of final added cell layer. If multiple layers
    // is the thickness of the layer furthest away from the wall.
    // Relative to undistorted size of cell outside layer.
    // See relativeSizes parameter.
    finalLayerThickness 0.5;

    // Minimum thickness of cell layer. If for any reason layer
    // cannot be above minThickness do not add layer.
    // See relativeSizes parameter.
    minThickness 0.1;

    // If points get not extruded do nGrow layers of connected faces that are
    // also not grown. This helps convergence of the layer addition process
    // close to features.
    nGrow 0;


    // Advanced settings

    // When not to extrude surface. 0 is flat surface, 90 is when two faces
    // are perpendicular
    featureAngle 30;

    // Maximum number of snapping relaxation iterations. Should stop
    // before upon reaching a correct mesh.
    nRelaxIter 5;

    // Number of smoothing iterations of surface normals
    nSmoothSurfaceNormals 1;

    // Number of smoothing iterations of interior mesh movement direction
    nSmoothNormals 3;

    // Smooth layer thickness over surface patches
    nSmoothThickness 10;

    // Stop layer growth on highly warped cells
    maxFaceThicknessRatio 0.5;

    // Reduce layer growth where ratio thickness to medial
    // distance is large
    maxThicknessToMedialRatio 0.3;

    // Angle used to pick up medial axis points
    minMedianAxisAngle 90;

    // Create buffer region for new layer terminations
    nBufferCellsNoExtrude 0;


    // Overall max number of layer addition iterations. The mesher will exit
    // if it reaches this number of iterations; possibly with an illegal
    // mesh.
    nLayerIter 50;

    // Max number of iterations after which relaxed meshQuality controls
    // get used. Up to nRelaxIter it uses the settings in meshQualityControls,
    // after nRelaxIter it uses the values in meshQualityControls::relaxed.
    nRelaxedIter 20;
}



// Generic mesh quality settings. At any undoable phase these determine
// where to undo.
meshQualityControls
{
//    #includeEtc "caseDicts/mesh/generation/meshQualityDict" // OF6
    #include "meshQualityDict"	// OF1806
    // Optional : some meshing phases allow usage of relaxed rules.
    // See e.g. addLayersControls::nRelaxedIter.
    relaxed
    {
        //- Maximum non-orthogonality allowed. Set to 180 to disable.
        maxNonOrtho 60;
    }

    // Advanced

    //- Number of error distribution iterations
    nSmoothScale 4;
    //- Amount to scale back displacement at error points
    errorReduction 0.75;
}


// Advanced

// Write flags
writeFlags
(
    scalarLevels    // write volScalarField with cellLevel for postprocessing
    // layerSets       // write cellSets, faceSets of faces in layer
    // layerFields     // write volScalarField for layer coverage
);


// Merge tolerance. Is fraction of overall bounding box of initial mesh.
// Note: the write tolerance needs to be higher than this.
mergeTolerance 1E-6;


// ************************************************************************* //
// https://www.cfd-online.com/Forums/openfoam-meshing-utilities/61483-snappyhexmesh-local-refinement-one-stlfile.html
